*SOILS:  DSSAT BRAZIL FOR SUGARCANE

*BRWFRBR001  TEMP        C       160 TEMP DATABASE
@SITE        COUNTRY          LAT     LONG SCS FAMILY
 -99         Brazil         1.267  -69.617 Rhodic Ferralsol (FRr)   
  @ SCOM  SALB  SLU1  SLDR  SLRO  SLNF  SLPF  SMHB  SMPX  SMKE
      BN  0.13  8.48  0.60 80.00  1.00  1.00 SA001 SA001 SA001
@  SLB  SLMH  SLLL  SDUL  SSAT  SRGF  SSKS  SBDM  SLOC  SLCL  SLSI  SLCF  SLNI  SLHW  SLHB  SCEC  SADC
    15     1 0.040 0.177 0.470  0.90 10.74  1.28  1.43  6.00 28.00 -99.0  0.11  4.90  4.00  5.80 -99.0
    35     2 0.060 0.194 0.431  0.73  5.61  1.42  1.02 21.00 22.00 -99.0  0.08  5.10  4.10  5.00 -99.0
    65     3 0.195 0.296 0.418  0.58  0.73  1.47  0.47 25.00 26.00 -99.0  0.04  5.00  4.10  3.10 -99.0
    95     4 0.220 0.302 0.405  0.46  0.52  1.51  0.35 26.00 22.00 11.00  0.04  4.80  4.10  2.60 -99.0
   120     5 0.226 0.300 0.395  0.39  0.47  1.54  0.20 31.00 20.00 11.00  0.03  4.90  4.10  2.40 -99.0
   160     6 0.223 0.298 0.383  0.33  0.38  1.58  0.18 28.00 14.00  5.00  0.02  5.00  4.20  2.10 -99.0

*BRWFLBR002  TEMP        C       120 TEMP DATABASE
@SITE        COUNTRY          LAT     LONG SCS FAMILY
 -99         Brazil         1.417  -68.617 Dystric Fluvisol (FLd)   
  @ SCOM  SALB  SLU1  SLDR  SLRO  SLNF  SLPF  SMHB  SMPX  SMKE
      BN  0.13 10.16  0.05 91.00  1.00  1.00 SA001 SA001 SA001
@  SLB  SLMH  SLLL  SDUL  SSAT  SRGF  SSKS  SBDM  SLOC  SLCL  SLSI  SLCF  SLNI  SLHW  SLHB  SCEC  SADC
    20     1 0.166 0.283 0.435  0.87  1.20  1.42  0.70 27.00 73.00 -99.0  0.09  3.90  3.50  6.90 -99.0
    50     2 0.218 0.332 0.437  0.66  0.40  1.45  0.52 29.00 71.00 -99.0  0.08  4.30  3.50  6.40 -99.0
    85     3 0.197 0.331 0.430  0.50  0.36  1.47  0.24 39.00 61.00 -99.0  0.07  4.40  3.60  7.30 -99.0
   120     4 0.188 0.329 0.433  0.40  0.40  1.46  0.31 39.00 61.00 -99.0  0.06  4.30  3.50  7.30 -99.0

*BRWGLBR006  TEMP        C       120 TEMP DATABASE
@SITE        COUNTRY          LAT     LONG SCS FAMILY
 -99         Brazil         0.217  -50.917 Eutric Gleysol (GLe)     
  @ SCOM  SALB  SLU1  SLDR  SLRO  SLNF  SLPF  SMHB  SMPX  SMKE
      BN  0.13 10.00  0.05 91.00  1.00  1.00 SA001 SA001 SA001
@  SLB  SLMH  SLLL  SDUL  SSAT  SRGF  SSKS  SBDM  SLOC  SLCL  SLSI  SLCF  SLNI  SLHW  SLHB  SCEC  SADC
    10     1 0.148 0.337 0.528  0.93  1.31  1.12  3.49 25.00 73.00 -99.0  0.37  4.60  3.50 16.10 -99.0
    50     2 0.234 0.373 0.430  0.69  0.11  1.47  0.20 29.00 69.00 -99.0  0.05  5.40  3.80 14.50 -99.0
   120     3 0.229 0.381 0.412  0.44  0.06  1.50  0.15 26.00 74.00 -99.0  0.04  5.50  3.90 13.90 -99.0

*BRWGLBR010  TEMP        C       100 TEMP DATABASE
@SITE        COUNTRY          LAT     LONG SCS FAMILY
 -99         Brazil         1.783  -61.183 Dystric Gleysol (GLd)    
  @ SCOM  SALB  SLU1  SLDR  SLRO  SLNF  SLPF  SMHB  SMPX  SMKE
      BN  0.13  9.20  0.25 88.00  1.00  1.00 SA001 SA001 SA001
@  SLB  SLMH  SLLL  SDUL  SSAT  SRGF  SSKS  SBDM  SLOC  SLCL  SLSI  SLCF  SLNI  SLHW  SLHB  SCEC  SADC
    30     1 0.126 0.246 0.389  0.82  1.54  1.53  0.50 15.00 17.00 25.00  0.04  4.60  3.80  2.60 -99.0
    65     2 0.209 0.296 0.385  0.59  0.43  1.57  0.20 22.00 17.00 29.00  0.02  5.00  4.00  1.60 -99.0
   100     3 0.213 0.297 0.391  0.45  0.47  1.56  0.19 26.00 19.00 34.00  0.01  5.30  4.00  1.60 -99.0

*BRWRGBR011  TEMP        C        40 TEMP DATABASE
@SITE        COUNTRY          LAT     LONG SCS FAMILY
 -99         Brazil         3.583  -63.783 Dystric Regosol (RGd)    
  @ SCOM  SALB  SLU1  SLDR  SLRO  SLNF  SLPF  SMHB  SMPX  SMKE
      BN  0.13  9.20  0.60 80.00  1.00  1.00 SA001 SA001 SA001
@  SLB  SLMH  SLLL  SDUL  SSAT  SRGF  SSKS  SBDM  SLOC  SLCL  SLSI  SLCF  SLNI  SLHW  SLHB  SCEC  SADC
    20     1 0.171 0.350 0.518  0.87  0.97  1.18  1.61 15.00 51.00 -99.0  0.15  3.80  3.10 12.00 -99.0
    40     2 0.078 0.194 0.463  0.69  7.23  1.34  0.79 15.00 40.00 -99.0  0.07  4.20  3.50  8.00 -99.0

*BRWACBR015  TEMP        C       140 TEMP DATABASE
@SITE        COUNTRY          LAT     LONG SCS FAMILY
 -99         Brazil         2.217  -62.917 Ferric Acrisol (ACf)     
  @ SCOM  SALB  SLU1  SLDR  SLRO  SLNF  SLPF  SMHB  SMPX  SMKE
      BN  0.13 11.36  0.60 80.00  1.00  1.00 SA001 SA001 SA001
@  SLB  SLMH  SLLL  SDUL  SSAT  SRGF  SSKS  SBDM  SLOC  SLCL  SLSI  SLCF  SLNI  SLHW  SLHB  SCEC  SADC
     5     1 0.205 0.369 0.528  0.96  0.70  1.17  1.79 42.00 42.00 26.00  0.24  4.20  3.80  7.00 -99.0
    20     2 0.260 0.412 0.508  0.84  0.23  1.24  1.23 50.00 37.00 23.00  0.15  4.00  3.70  5.70 -99.0
    45     3 0.236 0.388 0.490  0.67  0.28  1.30  0.78 65.00 26.00 18.00  0.12  4.10  3.70  5.10 -99.0
    90     4 0.224 0.368 0.467  0.50  0.30  1.37  0.33 70.00 27.00 13.00  0.05  4.90  3.90  3.80 -99.0
   140     5 0.227 0.366 0.475  0.37  0.36  1.35  0.30 76.00 23.00 22.00  0.04  5.30  4.00  3.30 -99.0

*BRWLPBR018  TEMP        C        20 TEMP DATABASE
@SITE        COUNTRY          LAT     LONG SCS FAMILY
 -99         Brazil         4.633  -60.667 Dystric Leptosol (LPd)   
  @ SCOM  SALB  SLU1  SLDR  SLRO  SLNF  SLPF  SMHB  SMPX  SMKE
      BN  0.13  7.76  0.85 68.00  1.00  1.00 SA001 SA001 SA001
@  SLB  SLMH  SLLL  SDUL  SSAT  SRGF  SSKS  SBDM  SLOC  SLCL  SLSI  SLCF  SLNI  SLHW  SLHB  SCEC  SADC
    20     1 0.260 0.412 0.491  0.87  0.16  1.28  1.43 54.00 44.00 -99.0  0.16  4.90  4.40  7.70 -99.0

*BRWACBR020  TEMP        C       150 TEMP DATABASE
@SITE        COUNTRY          LAT     LONG SCS FAMILY
 -99         Brazil        -8.367  -66.133 Plinthic Acrisol (ACp)   
  @ SCOM  SALB  SLU1  SLDR  SLRO  SLNF  SLPF  SMHB  SMPX  SMKE
      BN  0.13 10.24  0.40 88.00  1.00  1.00 SA001 SA001 SA001
@  SLB  SLMH  SLLL  SDUL  SSAT  SRGF  SSKS  SBDM  SLOC  SLCL  SLSI  SLCF  SLNI  SLHW  SLHB  SCEC  SADC
    10     1 0.145 0.299 0.526  0.93  2.07  1.19  1.00 28.00 54.00  2.00  0.10  3.70  3.50  8.70 -99.0
    25     2 0.235 0.352 0.496  0.79  0.64  1.28  0.52 38.00 44.00  2.00  0.07  3.70  3.50  6.80 -99.0
    90     3 0.196 0.326 0.488  0.54  0.92  1.31  0.44 42.00 43.00  5.00  0.05  4.10  3.60  6.20 -99.0
   150     4 0.224 0.358 0.476  0.36  0.43  1.34  0.23 56.00 30.00  8.00  0.04  4.60  3.60  7.40 -99.0

*BRWACBR021  TEMP        C       170 TEMP DATABASE
@SITE        COUNTRY          LAT     LONG SCS FAMILY
 -99         Brazil        -9.800  -68.000 Ferric Acrisol (ACf)     
  @ SCOM  SALB  SLU1  SLDR  SLRO  SLNF  SLPF  SMHB  SMPX  SMKE
      BN  0.13 10.08  0.40 88.00  1.00  1.00 SA001 SA001 SA001
@  SLB  SLMH  SLLL  SDUL  SSAT  SRGF  SSKS  SBDM  SLOC  SLCL  SLSI  SLCF  SLNI  SLHW  SLHB  SCEC  SADC
     5     1 0.148 0.337 0.513  0.96  1.13  1.18  2.42 26.00 67.00 -99.0  0.31  5.00  4.80 18.70 -99.0
    15     2 0.124 0.271 0.491  0.87  2.38  1.29  0.78 29.00 60.00 -99.0  0.15  5.00  4.00 11.00 -99.0
    40     3 0.223 0.348 0.470  0.71  0.49  1.36  0.40 38.00 53.00 -99.0  0.10  4.70  3.50 12.20 -99.0
   110     4 0.259 0.362 0.460  0.48  0.30  1.39  0.28 46.00 47.00  3.00  0.08  4.60  3.70 14.20 -99.0
   140     5 0.211 0.353 0.462  0.35  0.38  1.38  0.32 59.00 36.00  4.00  0.09  4.80  4.00 17.40 -99.0
   170     6 0.225 0.359 0.455  0.31  0.29  1.40  0.19 56.00 39.00  4.00  0.07  4.80  4.50 21.60 -99.0

*BRWACBR022  TEMP        C       150 TEMP DATABASE
@SITE        COUNTRY          LAT     LONG SCS FAMILY
 -99         Brazil        -8.950  -67.217 Plinthic Acrisol (ACp)   
  @ SCOM  SALB  SLU1  SLDR  SLRO  SLNF  SLPF  SMHB  SMPX  SMKE
      BN  0.13 10.56  0.40 88.00  1.00  1.00 SA001 SA001 SA001
@  SLB  SLMH  SLLL  SDUL  SSAT  SRGF  SSKS  SBDM  SLOC  SLCL  SLSI  SLCF  SLNI  SLHW  SLHB  SCEC  SADC
     4     1 0.155 0.337 0.547  0.97  1.42  1.09  3.64 32.00 64.00 -99.0  0.43  3.70  3.40 21.50 -99.0
    15     2 0.178 0.350 0.501  0.88  0.70  1.25  1.91 33.00 63.00  1.00  0.23  3.50  3.10 13.80 -99.0
    45     3 0.290 0.421 0.480  0.69  0.10  1.32  0.86 41.00 52.00  2.00  0.09  3.90  3.40 10.60 -99.0
    80     4 0.198 0.325 0.465  0.52  0.71  1.37  0.64 49.00 47.00  2.00  0.08  4.00  3.50 11.10 -99.0
   120     5 0.213 0.350 0.467  0.41  0.44  1.36  0.53 58.00 38.00 -99.0  0.07  4.20  3.80 10.90 -99.0
   150     6 0.226 0.358 0.478  0.34  0.45  1.34  0.35 49.00 39.00  2.00  0.04  4.50  3.40 11.80 -99.0

*BRWCMBR023  TEMP        C       170 TEMP DATABASE
@SITE        COUNTRY          LAT     LONG SCS FAMILY
 -99         Brazil        -9.650  -68.200 Dystric Cambisol (CMd)   
  @ SCOM  SALB  SLU1  SLDR  SLRO  SLNF  SLPF  SMHB  SMPX  SMKE
      BN  0.13  9.52  0.60 80.00  1.00  1.00 SA001 SA001 SA001
@  SLB  SLMH  SLLL  SDUL  SSAT  SRGF  SSKS  SBDM  SLOC  SLCL  SLSI  SLCF  SLNI  SLHW  SLHB  SCEC  SADC
    20     1 0.040 0.177 0.418  0.87  7.40  1.43  1.37 19.00 10.00 -99.0  0.14  3.50  3.00 11.00 -99.0
    50     2 0.192 0.289 0.396  0.66  0.61  1.54  0.33 23.00 19.00 -99.0  0.04  4.00  3.30  5.40 -99.0
    70     3 0.215 0.299 0.390  0.53  0.44  1.55  0.29 26.00 16.00 -99.0  0.04  4.00  3.60  5.60 -99.0
   100     4 0.215 0.299 0.399  0.44  0.52  1.53  0.28 26.00 21.00 -99.0  0.03  4.00  3.50  5.90 -99.0
   140     5 0.225 0.299 0.402  0.36  0.53  1.52  0.24 27.00 23.00 -99.0  0.03  4.20  3.50  5.40 -99.0
   170     6 0.240 0.309 0.386  0.31  0.31  1.57  0.23 34.00 13.00 -99.0  0.04  4.30  4.00  5.10 -99.0

*BRWFRBR024  TEMP        C       170 TEMP DATABASE
@SITE        COUNTRY          LAT     LONG SCS FAMILY
 -99         Brazil        -8.333  -68.167 Xanthic Ferralsol (FRx)  
  @ SCOM  SALB  SLU1  SLDR  SLRO  SLNF  SLPF  SMHB  SMPX  SMKE
      BN  0.13 10.40  0.40 88.00  1.00  1.00 SA001 SA001 SA001
@  SLB  SLMH  SLLL  SDUL  SSAT  SRGF  SSKS  SBDM  SLOC  SLCL  SLSI  SLCF  SLNI  SLHW  SLHB  SCEC  SADC
     5     1 0.180 0.357 0.467  0.96  0.44  1.31  1.88 30.00 22.00 -99.0  0.15  3.50  3.00 12.90 -99.0
    30     2 0.137 0.308 0.453  0.79  0.83  1.39  1.16 38.00 19.00 -99.0  0.09  3.50  3.20  8.20 -99.0
    50     3 0.214 0.339 0.445  0.63  0.39  1.42  0.59 43.00 20.00 -99.0  0.06  3.80  3.50  6.10 -99.0
    90     4 0.204 0.312 0.446  0.49  0.71  1.42  0.29 47.00 20.00 -99.0  0.05  4.10  3.50  5.10 -99.0
   140     5 0.237 0.343 0.454  0.37  0.42  1.41  0.20 51.00 20.00 -99.0  0.03  4.30  3.60  4.80 -99.0
   170     6 0.231 0.351 0.452  0.31  0.34  1.41  0.15 58.00 11.00 -99.0  0.03  4.50  3.60  4.40 -99.0

*BRWLVBR026  TEMP        C       140 TEMP DATABASE
@SITE        COUNTRY          LAT     LONG SCS FAMILY
 -99         Brazil        -9.167  -71.167 Ferric Luvisol (LVf)     
  @ SCOM  SALB  SLU1  SLDR  SLRO  SLNF  SLPF  SMHB  SMPX  SMKE
      BN  0.13  9.84  0.40 88.00  1.00  1.00 SA001 SA001 SA001
@  SLB  SLMH  SLLL  SDUL  SSAT  SRGF  SSKS  SBDM  SLOC  SLCL  SLSI  SLCF  SLNI  SLHW  SLHB  SCEC  SADC
    10     1 0.176 0.353 0.508  0.93  0.82  1.20  1.72 23.00 46.00 -99.0  0.17  5.90  5.00 21.80 -99.0
    20     2 0.151 0.293 0.494  0.82  1.70  1.29  0.67 28.00 45.00 -99.0  0.08  6.20  4.90 19.00 -99.0
    30     3 0.233 0.355 0.491  0.73  0.56  1.30  0.43 39.00 45.00 -99.0  0.05  6.10  4.90 29.60 -99.0
    40     4 0.215 0.345 0.476  0.66  0.56  1.34  0.37 45.00 44.00 -99.0  0.04  6.30  5.00 33.90 -99.0
    70     5 0.228 0.343 0.478  0.55  0.59  1.34  0.31 39.00 49.00 -99.0  0.02  6.40  5.00 31.20 -99.0
   140     6 0.217 0.340 0.469  0.39  0.55  1.36  0.28 36.00 54.00 -99.0  0.02  6.40  5.70 34.50 -99.0

*BRWCMBR027  TEMP        C       100 TEMP DATABASE
@SITE        COUNTRY          LAT     LONG SCS FAMILY
 -99         Brazil        -9.633  -71.133 Eutric Cambisol (CMe)    
  @ SCOM  SALB  SLU1  SLDR  SLRO  SLNF  SLPF  SMHB  SMPX  SMKE
      BN  0.13  9.04  0.60 80.00  1.00  1.00 SA001 SA001 SA001
@  SLB  SLMH  SLLL  SDUL  SSAT  SRGF  SSKS  SBDM  SLOC  SLCL  SLSI  SLCF  SLNI  SLHW  SLHB  SCEC  SADC
    10     1 0.047 0.182 0.448  0.93  8.44  1.35  1.21 13.00 30.00 -99.0  0.13  5.20  4.70 12.60 -99.0
    25     2 0.059 0.178 0.426  0.79  7.70  1.42  0.69 13.00 29.00 -99.0  0.07  5.90  5.10  9.00 -99.0
    35     3 0.124 0.234 0.408  0.69  2.38  1.48  0.52 17.00 25.00 -99.0  0.06  5.60  4.50 11.60 -99.0
    50     4 0.138 0.256 0.406  0.61  1.39  1.51  0.37 22.00 23.00 -99.0  0.04  5.20  4.00 15.00 -99.0
    70     5 0.206 0.294 0.388  0.53  0.55  1.54  0.25 20.00 22.00 -99.0  0.02  5.00  4.50 14.90 -99.0
   100     6 0.197 0.290 0.391  0.44  0.63  1.53  0.27 20.00 23.00 -99.0  0.02  5.20  4.30 16.50 -99.0

*BRWACBR028  TEMP        C       120 TEMP DATABASE
@SITE        COUNTRY          LAT     LONG SCS FAMILY
 -99         Brazil        -8.617  -71.200 Ferric Acrisol (ACf)     
  @ SCOM  SALB  SLU1  SLDR  SLRO  SLNF  SLPF  SMHB  SMPX  SMKE
      BN  0.13  9.44  0.40 88.00  1.00  1.00 SA001 SA001 SA001
@  SLB  SLMH  SLLL  SDUL  SSAT  SRGF  SSKS  SBDM  SLOC  SLCL  SLSI  SLCF  SLNI  SLHW  SLHB  SCEC  SADC
    20     1 0.130 0.255 0.447  0.87  2.21  1.39  0.56 18.00 38.00 -99.0  0.08  4.40  4.10  4.90 -99.0
    40     2 0.093 0.205 0.438  0.69  4.83  1.42  0.28 13.00 37.00 -99.0  0.03  5.00  4.00  3.10 -99.0
    55     3 0.119 0.244 0.423  0.59  2.13  1.46  0.33 18.00 33.00 -99.0  0.04  5.00  4.10  3.10 -99.0
    65     4 0.212 0.310 0.441  0.53  0.68  1.44  0.39 30.00 31.00 -99.0  0.05  4.80  4.00  5.70 -99.0
    80     5 0.212 0.320 0.446  0.48  0.60  1.42  0.41 39.00 26.00 -99.0  0.06  4.50  3.80  9.00 -99.0
   120     6 0.207 0.313 0.446  0.41  0.69  1.42  0.34 39.00 27.00 -99.0  0.04  4.70  4.00 10.00 -99.0

*BRWGLBR030  TEMP        C       160 TEMP DATABASE
@SITE        COUNTRY          LAT     LONG SCS FAMILY
 -99         Brazil        -3.433  -60.467 Eutric Gleysol (GLe)     
  @ SCOM  SALB  SLU1  SLDR  SLRO  SLNF  SLPF  SMHB  SMPX  SMKE
      BN  0.13 11.68  0.05 91.00  1.00  1.00 SA001 SA001 SA001
@  SLB  SLMH  SLLL  SDUL  SSAT  SRGF  SSKS  SBDM  SLOC  SLCL  SLSI  SLCF  SLNI  SLHW  SLHB  SCEC  SADC
    10     1 0.194 0.359 0.516  0.93  0.73  1.20  2.30 46.00 51.00 -99.0  0.23  4.10  3.30 28.10 -99.0
    20     2 0.289 0.425 0.468  0.82  0.06  1.35  0.80 51.00 47.00 -99.0  0.08  4.00  3.20 33.70 -99.0
   100     3 0.251 0.357 0.444  0.53  0.25  1.43  0.30 44.00 54.00 -99.0  0.03  4.50  3.20 23.80 -99.0
   160     4 0.231 0.352 0.476  0.34  0.48  1.35  0.20 55.00 28.00 -99.0  0.02  4.70  3.40 28.70 -99.0

*BRWFRBR037  TEMP        C       155 TEMP DATABASE
@SITE        COUNTRY          LAT     LONG SCS FAMILY
 -99         Brazil         1.050  -55.867 Haplic Ferralsol (FRh)   
  @ SCOM  SALB  SLU1  SLDR  SLRO  SLNF  SLPF  SMHB  SMPX  SMKE
      BN  0.13 10.80  0.60 80.00  1.00  1.00 SA001 SA001 SA001
@  SLB  SLMH  SLLL  SDUL  SSAT  SRGF  SSKS  SBDM  SLOC  SLCL  SLSI  SLCF  SLNI  SLHW  SLHB  SCEC  SADC
     5     1 0.177 0.351 0.459  0.96  0.44  1.34  1.67 35.00 19.00 23.00  0.12  5.40  4.20  5.50 -99.0
    20     2 0.183 0.312 0.463  0.84  0.87  1.37  0.94 44.00 20.00 15.00  0.08  5.30  4.30  3.50 -99.0
    45     3 0.226 0.348 0.465  0.67  0.44  1.37  0.52 52.00 18.00 25.00  0.05  5.50  4.50  2.50 -99.0
    80     4 0.236 0.342 0.455  0.52  0.43  1.40  0.28 51.00 19.00 10.00  0.04  5.70  4.50  2.00 -99.0
   130     5 0.235 0.348 0.458  0.39  0.39  1.39  0.28 53.00 18.00 29.00  0.03  5.70  4.80  1.80 -99.0
   155     6 0.121 0.257 0.440  0.32  1.99  1.42  0.13 23.00 42.00 14.00  0.02  5.70  4.50  2.00 -99.0

*BRWFRBR038  TEMP        C       180 TEMP DATABASE
@SITE        COUNTRY          LAT     LONG SCS FAMILY
 -99         Brazil         1.350  -54.283 Haplic Ferralsol (FRh)   
  @ SCOM  SALB  SLU1  SLDR  SLRO  SLNF  SLPF  SMHB  SMPX  SMKE
      BN  0.14  7.82  0.60 80.00  1.00  1.00 SA001 SA001 SA001
@  SLB  SLMH  SLLL  SDUL  SSAT  SRGF  SSKS  SBDM  SLOC  SLCL  SLSI  SLCF  SLNI  SLHW  SLHB  SCEC  SADC
    30     1 0.207 0.372 0.519  0.82  0.60  1.20  1.95 53.00 22.00 31.00  0.18  5.00  4.10  7.90 -99.0
    60     2 0.231 0.382 0.493  0.60  0.34  1.29  0.71 61.00 18.00 44.00  0.10  5.20  4.10  4.30 -99.0
    95     3 0.211 0.353 0.481  0.47  0.52  1.33  0.41 62.00 15.00 33.00  0.05  5.40  4.40  2.80 -99.0
   125     4 0.202 0.344 0.476  0.38  0.57  1.34  0.31 61.00 16.00 25.00  0.05  5.30  4.50  2.50 -99.0
   150     5 0.215 0.352 0.470  0.33  0.44  1.36  0.23 58.00 19.00 30.00  0.03  5.40  4.50  2.50 -99.0
   180     6 0.237 0.352 0.459  0.29  0.37  1.39  0.21 54.00 19.00 43.00  0.03  5.40  4.40  2.70 -99.0

*BRWFRBR039  TEMP        C       105 TEMP DATABASE
@SITE        COUNTRY          LAT     LONG SCS FAMILY
 -99         Brazil        -0.050  -57.500 Xanthic Ferralsol (FRx)  
  @ SCOM  SALB  SLU1  SLDR  SLRO  SLNF  SLPF  SMHB  SMPX  SMKE
      BN  0.13  7.88  0.60 80.00  1.00  1.00 SA001 SA001 SA001
@  SLB  SLMH  SLLL  SDUL  SSAT  SRGF  SSKS  SBDM  SLOC  SLCL  SLSI  SLCF  SLNI  SLHW  SLHB  SCEC  SADC
    20     1 0.235 0.392 0.520  0.87  0.42  1.20  1.71 52.00 38.00  1.00  0.17  4.30  4.00  5.00 -99.0
    40     2 0.221 0.366 0.491  0.69  0.46  1.29  0.97 65.00 29.00  2.00  0.10  4.70  4.30  3.20 -99.0
    65     3 0.236 0.388 0.477  0.56  0.22  1.34  0.48 70.00 24.00  3.00  0.07  5.70  4.90  1.80 -99.0
   105     4 0.213 0.351 0.475  0.44  0.48  1.35  0.29 67.00 24.00 12.00  0.03  5.50  5.10  1.50 -99.0

*BRWNTBR040  TEMP        C       110 TEMP DATABASE
@SITE        COUNTRY          LAT     LONG SCS FAMILY
 -99         Brazil         0.833  -56.583 Haplic Nitisol (NTh)     
  @ SCOM  SALB  SLU1  SLDR  SLRO  SLNF  SLPF  SMHB  SMPX  SMKE
      BN  0.13  9.28  0.60 80.00  1.00  1.00 SA001 SA001 SA001
@  SLB  SLMH  SLLL  SDUL  SSAT  SRGF  SSKS  SBDM  SLOC  SLCL  SLSI  SLCF  SLNI  SLHW  SLHB  SCEC  SADC
    10     1 0.082 0.234 0.452  0.93  3.60  1.33  1.69 16.00 24.00 19.00  0.13  4.60  4.00  5.90 -99.0
    20     2 0.129 0.241 0.429  0.82  2.39  1.43  0.85 23.00 24.00 22.00  0.08  4.60  4.00  3.60 -99.0
    40     3 0.204 0.324 0.432  0.69  0.44  1.46  0.52 36.00 22.00 29.00  0.04  5.10  4.20  2.80 -99.0
    75     4 0.213 0.336 0.434  0.54  0.34  1.45  0.52 45.00 16.00 33.00  0.04  5.40  4.20  2.60 -99.0
   110     5 0.224 0.343 0.460  0.42  0.46  1.39  0.37 53.00 17.00 22.00  0.03  6.10  5.30  2.40 -99.0

*BRWRGBR041  TEMP        C        40 TEMP DATABASE
@SITE        COUNTRY          LAT     LONG SCS FAMILY
 -99         Brazil       -10.267  -62.850 Eutric Regosol (RGe)     
  @ SCOM  SALB  SLU1  SLDR  SLRO  SLNF  SLPF  SMHB  SMPX  SMKE
      BN  0.13  9.52  0.60 80.00  1.00  1.00 SA001 SA001 SA001
@  SLB  SLMH  SLLL  SDUL  SSAT  SRGF  SSKS  SBDM  SLOC  SLCL  SLSI  SLCF  SLNI  SLHW  SLHB  SCEC  SADC
    15     1 0.077 0.229 0.442  0.90  3.61  1.36  1.51 19.00 23.00  8.00  0.13  5.50  5.00  9.20 -99.0
    40     2 0.124 0.234 0.417  0.71  2.39  1.47  0.59 22.00 24.00 28.00  0.07  5.70  4.80  5.70 -99.0

*BRWLXBR043  TEMP        C       160 TEMP DATABASE
@SITE        COUNTRY          LAT     LONG SCS FAMILY
 -99         Brazil       -11.017  -62.283 Haplic Lixisol (LXh)     
  @ SCOM  SALB  SLU1  SLDR  SLRO  SLNF  SLPF  SMHB  SMPX  SMKE
      BN  0.13  9.20  0.60 80.00  1.00  1.00 SA001 SA001 SA001
@  SLB  SLMH  SLLL  SDUL  SSAT  SRGF  SSKS  SBDM  SLOC  SLCL  SLSI  SLCF  SLNI  SLHW  SLHB  SCEC  SADC
    20     1 0.120 0.240 0.391  0.87  1.77  1.52  0.58 15.00 16.00 12.00  0.11  5.80  5.10  3.60 -99.0
    40     2 0.169 0.279 0.379  0.69  0.67  1.56  0.33 19.00 16.00 13.00  0.07  5.80  5.00  3.50 -99.0
    60     3 0.223 0.303 0.389  0.58  0.39  1.56  0.33 29.00 13.00 45.00  0.07  5.50  5.00  3.20 -99.0
    90     4 0.211 0.315 0.417  0.48  0.41  1.51  0.27 42.00 17.00  6.00  0.06  5.30  5.20  3.50 -99.0
   110     5 0.211 0.313 0.422  0.41  0.47  1.49  0.20 39.00 22.00  3.00  0.05  5.40  5.30  3.50 -99.0
   160     6 0.182 0.282 0.415  0.34  0.83  1.51  0.14 31.00 25.00  6.00  0.05  5.50  5.10  3.60 -99.0

*BRWACBR045  TEMP        C       215 TEMP DATABASE
@SITE        COUNTRY          LAT     LONG SCS FAMILY
 -99         Brazil       -22.733  -43.733 Haplic Acrisol (ACh)     
  @ SCOM  SALB  SLU1  SLDR  SLRO  SLNF  SLPF  SMHB  SMPX  SMKE
      BN  0.13  9.44  0.40 88.00  1.00  1.00 SA001 SA001 SA001
@  SLB  SLMH  SLLL  SDUL  SSAT  SRGF  SSKS  SBDM  SLOC  SLCL  SLSI  SLCF  SLNI  SLHW  SLHB  SCEC  SADC
    10     1 0.047 0.182 0.425  0.93  7.14  1.41  1.30 18.00 18.00 -99.0  0.09  4.80 -99.0  6.30 -99.0
    30     6 0.116 0.247 0.409  0.77  1.73  1.49  0.70 22.00 17.00 -99.0  0.07  4.70 -99.0  5.90 -99.0
    45     7 0.199 0.294 0.402  0.64  0.61  1.52  0.50 26.00 17.00 -99.0  0.06  4.70 -99.0  6.10 -99.0
    75     2 0.213 0.333 0.411  0.53  0.28  1.49  0.50 40.00 15.00 -99.0  0.06  4.60 -99.0  7.00 -99.0
   155     3 0.222 0.298 0.409  0.37  0.62  1.51  0.20 29.00 26.00 -99.0  0.05  4.70 -99.0  6.30 -99.0
   195     4 0.213 0.296 0.396  0.28  0.52  1.54  0.10 24.00 24.00 -99.0  0.04  4.70 -99.0  6.00 -99.0
   215     5 0.060 0.194 0.428  0.25  5.90  1.43 -99.0 20.00 22.00 -99.0 -99.0  4.70 -99.0  8.00 -99.0

*BRWFRBR049  TEMP        C       280 TEMP DATABASE
@SITE        COUNTRY          LAT     LONG SCS FAMILY
 -99         Brazil       -22.467  -47.483 Haplic Ferralsol (FRh)   
  @ SCOM  SALB  SLU1  SLDR  SLRO  SLNF  SLPF  SMHB  SMPX  SMKE
      BN  0.13  6.44  0.60 80.00  1.00  1.00 SA001 SA001 SA001
@  SLB  SLMH  SLLL  SDUL  SSAT  SRGF  SSKS  SBDM  SLOC  SLCL  SLSI  SLCF  SLNI  SLHW  SLHB  SCEC  SADC
    30     1 0.256 0.405 0.541  0.82  0.45  1.14  1.60 76.00  8.00 -99.0  0.14  4.70 -99.0 11.50 -99.0
    60     4 0.236 0.388 0.519  0.60  0.45  1.21  1.00 77.00 11.00 -99.0  0.09  4.80 -99.0  8.20 -99.0
   150     2 0.236 0.388 0.507  0.39  0.38  1.26  0.50 77.00 10.00 -99.0  0.05  5.20 -99.0  5.10 -99.0
   210     3 0.213 0.351 0.492  0.28  0.62  1.30  0.20 79.00 11.00 -99.0  0.03  5.30 -99.0  5.30 -99.0
   260     5 0.213 0.351 0.488  0.23  0.58  1.31  0.20 74.00 14.00 -99.0  0.03  4.80 -99.0  5.60 -99.0
   280     6 0.241 0.353 0.472  0.20  0.45  1.36  0.10 55.00 25.00 -99.0  0.05  4.60 -99.0  6.70 -99.0

*BRWFRBR051  TEMP        C       130 TEMP DATABASE
@SITE        COUNTRY          LAT     LONG SCS FAMILY
 -99         Brazil       -20.150  -47.783 Rhodic Ferralsol (FRr)   
  @ SCOM  SALB  SLU1  SLDR  SLRO  SLNF  SLPF  SMHB  SMPX  SMKE
      BN  0.13  7.64  0.60 80.00  1.00  1.00 SA001 SA001 SA001
@  SLB  SLMH  SLLL  SDUL  SSAT  SRGF  SSKS  SBDM  SLOC  SLCL  SLSI  SLCF  SLNI  SLHW  SLHB  SCEC  SADC
    20     1 0.235 0.392 0.509  0.87  0.36  1.23  1.70 56.00 16.00 -99.0  0.15  5.20 -99.0 14.20 -99.0
    40     4 0.235 0.377 0.502  0.69  0.44  1.26  1.00 60.00 20.00 -99.0  0.08  5.70 -99.0 10.00 -99.0
    60     2 0.236 0.388 0.500  0.58  0.33  1.27  0.80 65.00 17.00 -99.0  0.06  6.00 -99.0  8.90 -99.0
   120     3 0.214 0.358 0.483  0.43  0.47  1.32  0.60 58.00 19.00 -99.0  0.03  6.10 -99.0  7.40 -99.0
   130     5 0.236 0.310 0.422  0.35  0.50  1.49  0.40 35.00 21.00 -99.0  0.03  6.40 -99.0  8.20 -99.0

*BRWNTBR055  TEMP        C       190 TEMP DATABASE
@SITE        COUNTRY          LAT     LONG SCS FAMILY
 -99         Brazil       -28.300  -52.417 Haplic Nitisol (NTh)     
  @ SCOM  SALB  SLU1  SLDR  SLRO  SLNF  SLPF  SMHB  SMPX  SMKE
      BN  0.13 11.60  0.60 80.00  1.00  1.00 SA001 SA001 SA001
@  SLB  SLMH  SLLL  SDUL  SSAT  SRGF  SSKS  SBDM  SLOC  SLCL  SLSI  SLCF  SLNI  SLHW  SLHB  SCEC  SADC
    15     1 0.183 0.353 0.560  0.90  1.26  1.07  3.20 45.00 39.00 -99.0  0.28  5.90 -99.0 18.30 -99.0
    40     5 0.296 0.438 0.503  0.71  0.10  1.26  1.10 57.00 32.00 -99.0  0.12  5.00 -99.0 14.00 -99.0
    70     2 0.236 0.388 0.489  0.55  0.28  1.30  0.70 71.00 22.00 -99.0  0.10  5.10 -99.0 11.30 -99.0
   160     3 0.214 0.358 0.481  0.37  0.46  1.33  0.50 64.00 27.00 -99.0  0.07  5.60 -99.0  9.80 -99.0
   190     4 0.244 0.349 0.474  0.28  0.51  1.35  0.20 45.00 41.00 -99.0  0.04  5.60 -99.0  9.80 -99.0

*BRWNTBR056  TEMP        C       250 TEMP DATABASE
@SITE        COUNTRY          LAT     LONG SCS FAMILY
 -99         Brazil       -23.050  -49.750 Haplic Nitisol (NTh)     
  @ SCOM  SALB  SLU1  SLDR  SLRO  SLNF  SLPF  SMHB  SMPX  SMKE
      BN  0.13  7.16  0.60 80.00  1.00  1.00 SA001 SA001 SA001
@  SLB  SLMH  SLLL  SDUL  SSAT  SRGF  SSKS  SBDM  SLOC  SLCL  SLSI  SLCF  SLNI  SLHW  SLHB  SCEC  SADC
    19     1 0.250 0.400 0.521  0.88  0.37  1.20  1.50 64.00 15.00 -99.0  0.18  6.20 -99.0 16.90 -99.0
    80     2 0.236 0.388 0.511  0.58  0.40  1.24  0.60 82.00 12.00 -99.0  0.07  5.80 -99.0 11.30 -99.0
   134     3 0.208 0.355 0.495  0.39  0.59  1.29  0.40 73.00 14.00 -99.0  0.03  4.80 -99.0  9.40 -99.0
   224     4 0.211 0.350 0.477  0.28  0.52  1.34  0.20 61.00 20.00 -99.0  0.03  5.00 -99.0  8.60 -99.0
   250     5 0.193 0.307 0.445  0.22  0.77  1.43  0.20 43.00 25.00 -99.0  0.05  4.90 -99.0  9.50 -99.0

*BRWACBR060  TEMP        C       150 TEMP DATABASE
@SITE        COUNTRY          LAT     LONG SCS FAMILY
 -99         Brazil        -8.350  -35.017 Gleyic Acrisol (ACg)     
  @ SCOM  SALB  SLU1  SLDR  SLRO  SLNF  SLPF  SMHB  SMPX  SMKE
      BN  0.13  9.76  0.40 88.00  1.00  1.00 SA001 SA001 SA001
@  SLB  SLMH  SLLL  SDUL  SSAT  SRGF  SSKS  SBDM  SLOC  SLCL  SLSI  SLCF  SLNI  SLHW  SLHB  SCEC  SADC
     8     1 0.089 0.245 0.461  0.94  2.97  1.33  1.70 22.00 17.00 -99.0  0.17  5.00 -99.0 18.10 -99.0
    28     2 0.274 0.436 0.491  0.79  0.08  1.29  1.10 57.00 15.00 -99.0  0.11  5.00 -99.0 12.70 -99.0
    56     3 0.230 0.350 0.564  0.62  1.36  1.10  0.60 51.00 23.00 -99.0  0.06  5.00 -99.0 12.00 -99.0
    88     4 0.201 0.302 0.474  0.49  1.19  1.35  0.30 37.00 27.00 -99.0  0.03  5.10 -99.0 10.00 -99.0
   150     5 0.122 0.257 0.465  0.36  2.58  1.35  0.10 20.00 29.00 -99.0  0.01  5.00 -99.0  8.20 -99.0

*BRWFRBR064  TEMP        C       175 TEMP DATABASE
@SITE        COUNTRY          LAT     LONG SCS FAMILY
 -99         Brazil       -21.133  -42.083 Rhodic Ferralsol (FRr)   
  @ SCOM  SALB  SLU1  SLDR  SLRO  SLNF  SLPF  SMHB  SMPX  SMKE
      BN  0.13  8.00  0.60 80.00  1.00  1.00 SA001 SA001 SA001
@  SLB  SLMH  SLLL  SDUL  SSAT  SRGF  SSKS  SBDM  SLOC  SLCL  SLSI  SLCF  SLNI  SLHW  SLHB  SCEC  SADC
     9     2 0.196 0.356 0.471  0.94  0.41  1.33  1.70 50.00  7.00 -99.0  0.17  5.10 -99.0  4.10 -99.0
    36     1 0.195 0.357 0.500  0.75  0.62  1.26  1.20 52.00  9.00 -99.0  0.12  4.90 -99.0  3.50 -99.0
    72     3 0.230 0.350 0.556  0.56  1.27  1.12  0.70 55.00 11.00 -99.0  0.07  4.80 -99.0  1.80 -99.0
   102     4 0.214 0.358 0.594  0.44  1.57  1.02  0.50 60.00  8.00 -99.0  0.05  5.00 -99.0  1.80 -99.0
   147     5 0.209 0.347 0.455  0.35  0.38  1.40  0.30 59.00  8.00 -99.0  0.03  5.70 -99.0  1.80 -99.0
   175     6 0.209 0.347 0.453  0.30  0.37  1.40  0.30 58.00  9.00 -99.0  0.03  5.70 -99.0  1.10 -99.0

*BRWFRBR065  TEMP        C       250 TEMP DATABASE
@SITE        COUNTRY          LAT     LONG SCS FAMILY
 -99         Brazil        -2.900  -54.933 Xanthic Ferralsol (FRx)  
  @ SCOM  SALB  SLU1  SLDR  SLRO  SLNF  SLPF  SMHB  SMPX  SMKE
      BN  0.13  5.96  0.60 80.00  1.00  1.00 SA001 SA001 SA001
@  SLB  SLMH  SLLL  SDUL  SSAT  SRGF  SSKS  SBDM  SLOC  SLCL  SLSI  SLCF  SLNI  SLHW  SLHB  SCEC  SADC
     7     2 0.240 0.393 0.577  0.95  0.82  1.03  2.60 84.00  5.00 -99.0  0.26  3.90 -99.0  6.90 -99.0
    25     1 0.232 0.384 0.556  0.81  0.76  1.11  1.40 88.00  6.00 -99.0  0.14  4.50 -99.0  5.50 -99.0
    48     4 0.236 0.388 0.553  0.65  0.68  1.13  0.80 92.00  4.00 -99.0  0.08  4.60 -99.0  3.00 -99.0
    85     5 0.236 0.388 0.545  0.51  0.63  1.15  0.50 93.00  4.00 -99.0  0.05  4.80 -99.0  2.60 -99.0
   170     6 0.234 0.380 0.538  0.35  0.66  1.17  0.35 90.00  6.00 -99.0  0.03  5.30 -99.0  2.30 -99.0
   250     3 0.228 0.372 0.536  0.25  0.74  1.18  0.30 90.00  6.00 -99.0  0.03  5.20 -99.0  2.10 -99.0

*BRWFRBR066  TEMP        C       250 TEMP DATABASE
@SITE        COUNTRY          LAT     LONG SCS FAMILY
 -99         Brazil       -22.550  -50.317 Rhodic Ferralsol (FRr)   
  @ SCOM  SALB  SLU1  SLDR  SLRO  SLNF  SLPF  SMHB  SMPX  SMKE
      BN  0.13  8.00  0.60 80.00  1.00  1.00 SA001 SA001 SA001
@  SLB  SLMH  SLLL  SDUL  SSAT  SRGF  SSKS  SBDM  SLOC  SLCL  SLSI  SLCF  SLNI  SLHW  SLHB  SCEC  SADC
    28     1 0.040 0.171 0.376  0.83  5.87  1.56  0.80 15.00  5.00 -99.0  0.08  5.20 -99.0  3.30 -99.0
    85     2 0.171 0.280 0.453  0.55  1.71  1.35  0.40 20.00  5.00 -99.0  0.04  4.90 -99.0  2.20 -99.0
   250     3 0.221 0.303 0.461  0.29  1.14  1.36  0.15 24.00  6.00 -99.0  0.02  5.10 -99.0  1.50 -99.0

*BRWFRBR067  TEMP        C       310 TEMP DATABASE
@SITE        COUNTRY          LAT     LONG SCS FAMILY
 -99         Brazil        -1.367  -47.183 Xanthic Ferralsol (FRx)  
  @ SCOM  SALB  SLU1  SLDR  SLRO  SLNF  SLPF  SMHB  SMPX  SMKE
      BN  0.13  6.65  0.60 80.00  1.00  1.00 SA001 SA001 SA001
@  SLB  SLMH  SLLL  SDUL  SSAT  SRGF  SSKS  SBDM  SLOC  SLCL  SLSI  SLCF  SLNI  SLHW  SLHB  SCEC  SADC
     8     2 0.036 0.160 0.424  0.94 10.61  1.41  1.40  9.00  2.00 -99.0  0.14  6.10 -99.0  6.70 -99.0
    18     1 0.051 0.188 0.385  0.84  4.49  1.53  1.00 16.00  4.00 -99.0  0.10  5.10 -99.0  4.40 -99.0
    45     3 0.113 0.246 0.389  0.68  1.39  1.55  0.60 23.00  5.00 -99.0  0.06  4.60 -99.0  3.00 -99.0
    80     4 0.208 0.296 0.405  0.52  0.60  1.51  0.40 29.00  3.00 -99.0  0.04  4.80 -99.0  2.30 -99.0
   160     5 0.227 0.301 0.447  0.36  0.99  1.40  0.15 30.00  3.00 -99.0  0.02  4.90 -99.0  1.40 -99.0
   310     6 0.226 0.301 0.364  0.23  0.23  1.63  0.10 30.00  5.00 -99.0  0.01  4.90 -99.0  1.10 -99.0

*BRWLXBR068  TEMP        C       375 TEMP DATABASE
@SITE        COUNTRY          LAT     LONG SCS FAMILY
 -99         Brazil        -9.933  -36.533 Albic Lixisol (LXa)      
  @ SCOM  SALB  SLU1  SLDR  SLRO  SLNF  SLPF  SMHB  SMPX  SMKE
      BN  0.13  6.50  0.40 88.00  1.00  1.00 SA001 SA001 SA001
@  SLB  SLMH  SLLL  SDUL  SSAT  SRGF  SSKS  SBDM  SLOC  SLCL  SLSI  SLCF  SLNI  SLHW  SLHB  SCEC  SADC