*SOILS: DSSAT Brazilian soil profiles

Source:
- WISE Version 1.1 
- SNLCS(Serviço Nacional de Levantamento e Conservação de Solos) [EMBRAPA]

*BRWFRBR001  WISE        SL      160 WISE DATABASE, SOIL BR001
@SITE        COUNTRY          LAT     LONG SCS Family
 -99         Brazil         1.267  -69.617 Rhodic Ferralsol (FRr)
@ SCOM  SALB  SLU1  SLDR  SLRO  SLNF  SLPF  SMHB  SMPX  SMKE
    BN  0.13  8.48  0.60 76.00  1.00  1.00 SA001 SA001 SA001
@  SLB  SLMH  SLLL  SDUL  SSAT  SRGF  SSKS  SBDM  SLOC  SLCL  SLSI  SLCF  SLNI  SLHW  SLHB  SCEC  SADC
    15    A1 0.040 0.177 0.470  1.00 10.74  1.28  1.43  6.00 28.00 -99.0  0.11  4.90  4.00  5.80 -99.0
    35    A3 0.060 0.194 0.431  0.61  5.61  1.42  1.02 21.00 22.00 -99.0  0.08  5.10  4.10  5.00 -99.0
    65    B1 0.195 0.296 0.418  0.37  0.73  1.47  0.47 25.00 26.00 -99.0  0.04  5.00  4.10  3.10 -99.0
    95   B21 0.220 0.302 0.405  0.20  0.52  1.51  0.35 26.00 22.00 11.00  0.04  4.80  4.10  2.60 -99.0
   120   B22 0.226 0.300 0.395  0.12  0.47  1.54  0.20 31.00 20.00 11.00  0.03  4.90  4.10  2.40 -99.0
   160    B3 0.223 0.298 0.383  0.06  0.38  1.58  0.18 28.00 14.00  5.00  0.02  5.00  4.20  2.10 -99.0
@  SLB  SLPX  SLPT  SLPO CACO3  SLAL  SLFE  SLMN  SLBS  SLPA  SLPB  SLKE  SLMG  SLNA  SLSU  SLEC  SLCA
    15 -99.0   1.0 -99.0 -99.0   1.3 -99.0 -99.0   6.0 -99.0 -99.0   0.1   0.1 -99.0 -99.0 -99.0   0.1
    35 -99.0 -99.0 -99.0 -99.0   1.3 -99.0 -99.0   3.0 -99.0 -99.0 -99.0 -99.0 -99.0 -99.0 -99.0 -99.0
    65 -99.0 -99.0 -99.0 -99.0   1.1 -99.0 -99.0   4.0 -99.0 -99.0 -99.0 -99.0 -99.0 -99.0 -99.0 -99.0
    95 -99.0 -99.0 -99.0 -99.0   1.1 -99.0 -99.0   4.0 -99.0 -99.0 -99.0 -99.0 -99.0 -99.0 -99.0 -99.0
   120 -99.0 -99.0 -99.0 -99.0   1.0 -99.0 -99.0   4.0 -99.0 -99.0 -99.0 -99.0 -99.0 -99.0 -99.0 -99.0
   160 -99.0 -99.0 -99.0 -99.0   0.8 -99.0 -99.0   5.0 -99.0 -99.0 -99.0 -99.0 -99.0 -99.0 -99.0 -99.0

*BRWFLBR002  WISE        SIL     120 WISE DATABASE, SOIL BR002
@SITE        COUNTRY          LAT     LONG SCS Family
 -99         Brazil         1.417  -68.617 Dystric Fluvisol (FLd)
@ SCOM  SALB  SLU1  SLDR  SLRO  SLNF  SLPF  SMHB  SMPX  SMKE
     G  0.13 10.16  0.05 73.00  1.00  1.00 SA001 SA001 SA001
@  SLB  SLMH  SLLL  SDUL  SSAT  SRGF  SSKS  SBDM  SLOC  SLCL  SLSI  SLCF  SLNI  SLHW  SLHB  SCEC  SADC
    20    A1 0.166 0.283 0.435  0.82  1.20  1.42  0.70 27.00 73.00 -99.0  0.09  3.90  3.50  6.90 -99.0
    50   C1g 0.218 0.332 0.437  0.50  0.40  1.45  0.52 29.00 71.00 -99.0  0.08  4.30  3.50  6.40 -99.0
    85   C2g 0.197 0.331 0.430  0.26  0.36  1.47  0.24 39.00 61.00 -99.0  0.07  4.40  3.60  7.30 -99.0
   120   C3g 0.188 0.329 0.433  0.13  0.40  1.46  0.31 39.00 61.00 -99.0  0.06  4.30  3.50  7.30 -99.0
@  SLB  SLPX  SLPT  SLPO CACO3  SLAL  SLFE  SLMN  SLBS  SLPA  SLPB  SLKE  SLMG  SLNA  SLSU  SLEC  SLCA
    20 -99.0   0.2 -99.0 -99.0   5.4 -99.0 -99.0   2.0 -99.0 -99.0   0.1   0.1 -99.0 -99.0 -99.0 -99.0
    50 -99.0   0.2 -99.0 -99.0   5.2 -99.0 -99.0   2.0 -99.0 -99.0 -99.0 -99.0 -99.0 -99.0 -99.0 -99.0
    85 -99.0   0.1 -99.0 -99.0   6.0 -99.0 -99.0   2.0 -99.0 -99.0 -99.0 -99.0 -99.0 -99.0 -99.0   0.1
   120 -99.0   0.1 -99.0 -99.0   6.0 -99.0 -99.0   2.0 -99.0 -99.0 -99.0 -99.0 -99.0 -99.0 -99.0   0.1

*BRWGLBR006  WISE        SIL     120 WISE DATABASE, SOIL BR006
@SITE        COUNTRY          LAT     LONG SCS Family
 -99         Brazil         0.217  -50.917 Eutric Gleysol (GLe)
@ SCOM  SALB  SLU1  SLDR  SLRO  SLNF  SLPF  SMHB  SMPX  SMKE
    BN  0.13 10.00  0.05 73.00  1.00  1.00 SA001 SA001 SA001
@  SLB  SLMH  SLLL  SDUL  SSAT  SRGF  SSKS  SBDM  SLOC  SLCL  SLSI  SLCF  SLNI  SLHW  SLHB  SCEC  SADC
    10   A1g 0.148 0.337 0.528  1.00  1.31  1.12  3.49 25.00 73.00 -99.0  0.37  4.60  3.50 16.10 -99.0
    50   C1g 0.234 0.373 0.430  0.55  0.11  1.47  0.20 29.00 69.00 -99.0  0.05  5.40  3.80 14.50 -99.0
   120   C2g 0.229 0.381 0.412  0.18  0.06  1.50  0.15 26.00 74.00 -99.0  0.04  5.50  3.90 13.90 -99.0
@  SLB  SLPX  SLPT  SLPO CACO3  SLAL  SLFE  SLMN  SLBS  SLPA  SLPB  SLKE  SLMG  SLNA  SLSU  SLEC  SLCA
    10 -99.0   2.0 -99.0 -99.0   1.8 -99.0 -99.0  19.0 -99.0 -99.0   0.1   1.4   0.1 -99.0 -99.0   1.4
    50 -99.0   2.0 -99.0 -99.0 -99.0 -99.0 -99.0  79.0 -99.0 -99.0   0.1   5.3   0.3 -99.0 -99.0   5.6
   120 -99.0   3.0 -99.0 -99.0 -99.0 -99.0 -99.0  86.0 -99.0 -99.0   0.1   4.4   0.5 -99.0 -99.0   6.9

*BRWGLBR010  WISE        SL      100 WISE DATABASE, SOIL BR010
@SITE        COUNTRY          LAT     LONG SCS Family
 -99         Brazil         1.783  -61.183 Dystric Gleysol (GLd)
@ SCOM  SALB  SLU1  SLDR  SLRO  SLNF  SLPF  SMHB  SMPX  SMKE
     G  0.13  9.20  0.25 73.00  1.00  1.00 SA001 SA001 SA001
@  SLB  SLMH  SLLL  SDUL  SSAT  SRGF  SSKS  SBDM  SLOC  SLCL  SLSI  SLCF  SLNI  SLHW  SLHB  SCEC  SADC
    30    A1 0.126 0.246 0.389  0.74  1.54  1.53  0.50 15.00 17.00 25.00  0.04  4.60  3.80  2.60 -99.0
    65   C1g 0.209 0.296 0.385  0.39  0.43  1.57  0.20 22.00 17.00 29.00  0.02  5.00  4.00  1.60 -99.0
   100   C2g 0.213 0.297 0.391  0.19  0.47  1.56  0.19 26.00 19.00 34.00  0.01  5.30  4.00  1.60 -99.0
@  SLB  SLPX  SLPT  SLPO CACO3  SLAL  SLFE  SLMN  SLBS  SLPA  SLPB  SLKE  SLMG  SLNA  SLSU  SLEC  SLCA
    30 -99.0   0.0 -99.0 -99.0   1.0 -99.0 -99.0   5.0 -99.0 -99.0 -99.0 -99.0 -99.0 -99.0 -99.0 -99.0
    65 -99.0   0.0 -99.0 -99.0   0.6 -99.0 -99.0   5.0 -99.0 -99.0 -99.0 -99.0 -99.0 -99.0 -99.0 -99.0
   100 -99.0   0.0 -99.0 -99.0   0.6 -99.0 -99.0   8.0 -99.0 -99.0 -99.0 -99.0 -99.0 -99.0 -99.0 -99.0

*BRWRGBR011  WISE        SIL      40 WISE DATABASE, SOIL BR011
@SITE        COUNTRY          LAT     LONG SCS Family
 -99         Brazil         3.583  -63.783 Dystric Regosol (RGd)
@ SCOM  SALB  SLU1  SLDR  SLRO  SLNF  SLPF  SMHB  SMPX  SMKE
    BN  0.13  9.20  0.60 76.00  1.00  1.00 SA001 SA001 SA001
@  SLB  SLMH  SLLL  SDUL  SSAT  SRGF  SSKS  SBDM  SLOC  SLCL  SLSI  SLCF  SLNI  SLHW  SLHB  SCEC  SADC
    20    A1 0.171 0.350 0.518  0.82  0.97  1.18  1.61 15.00 51.00 -99.0  0.15  3.80  3.10 12.00 -99.0
    40    A3 0.078 0.194 0.463  0.55  7.23  1.34  0.79 15.00 40.00 -99.0  0.07  4.20  3.50  8.00 -99.0
@  SLB  SLPX  SLPT  SLPO CACO3  SLAL  SLFE  SLMN  SLBS  SLPA  SLPB  SLKE  SLMG  SLNA  SLSU  SLEC  SLCA
    20 -99.0   1.0 -99.0 -99.0   5.1 -99.0 -99.0   4.0 -99.0 -99.0   0.2   0.2 -99.0 -99.0 -99.0   0.1
    40 -99.0   0.7 -99.0 -99.0   4.9 -99.0 -99.0   2.0 -99.0 -99.0   0.1   0.1 -99.0 -99.0 -99.0 -99.0

*BRWACBR015  WISE        SIC     140 WISE DATABASE, SOIL BR015
@SITE        COUNTRY          LAT     LONG SCS Family
 -99         Brazil         2.217  -62.917 Ferric Acrisol (ACf)
@ SCOM  SALB  SLU1  SLDR  SLRO  SLNF  SLPF  SMHB  SMPX  SMKE
    BN  0.13 11.36  0.60 83.00  1.00  1.00 SA001 SA001 SA001
@  SLB  SLMH  SLLL  SDUL  SSAT  SRGF  SSKS  SBDM  SLOC  SLCL  SLSI  SLCF  SLNI  SLHW  SLHB  SCEC  SADC
     5    A1 0.205 0.369 0.528  1.00  0.70  1.17  1.79 42.00 42.00 26.00  0.24  4.20  3.80  7.00 -99.0
    20    A3 0.260 0.412 0.508  0.78  0.23  1.24  1.23 50.00 37.00 23.00  0.15  4.00  3.70  5.70 -99.0
    45    B1 0.236 0.388 0.490  0.52  0.28  1.30  0.78 65.00 26.00 18.00  0.12  4.10  3.70  5.10 -99.0
    90   B21 0.224 0.368 0.467  0.26  0.30  1.37  0.33 70.00 27.00 13.00  0.05  4.90  3.90  3.80 -99.0
   140   B22 0.227 0.366 0.475  0.10  0.36  1.35  0.30 76.00 23.00 22.00  0.04  5.30  4.00  3.30 -99.0
@  SLB  SLPX  SLPT  SLPO CACO3  SLAL  SLFE  SLMN  SLBS  SLPA  SLPB  SLKE  SLMG  SLNA  SLSU  SLEC  SLCA
     5 -99.0   3.8 -99.0 -99.0   1.6 -99.0 -99.0  13.0 -99.0 -99.0   0.3   0.4 -99.0 -99.0 -99.0   0.2
    20 -99.0   1.7 -99.0 -99.0   1.2 -99.0 -99.0  10.0 -99.0 -99.0   0.2   0.2 -99.0 -99.0 -99.0   0.1
    45 -99.0 -99.0 -99.0 -99.0   1.8 -99.0 -99.0   9.0 -99.0 -99.0   0.1   0.2 -99.0 -99.0 -99.0   0.1
    90 -99.0 -99.0 -99.0 -99.0   1.6 -99.0 -99.0   8.0 -99.0 -99.0   0.1   0.2 -99.0 -99.0 -99.0 -99.0
   140 -99.0 -99.0 -99.0 -99.0   1.0 -99.0 -99.0   8.0 -99.0 -99.0   0.1   0.2 -99.0 -99.0 -99.0 -99.0

*BRWLPBR018  WISE        SIC      20 WISE DATABASE, SOIL BR018
@SITE        COUNTRY          LAT     LONG SCS Family
 -99         Brazil         4.633  -60.667 Dystric Leptosol (LPd)
@ SCOM  SALB  SLU1  SLDR  SLRO  SLNF  SLPF  SMHB  SMPX  SMKE
    BN  0.13  7.76  0.85 64.00  1.00  1.00 SA001 SA001 SA001
@  SLB  SLMH  SLLL  SDUL  SSAT  SRGF  SSKS  SBDM  SLOC  SLCL  SLSI  SLCF  SLNI  SLHW  SLHB  SCEC  SADC
    20     A 0.260 0.412 0.491  0.82  0.16  1.28  1.43 54.00 44.00 -99.0  0.16  4.90  4.40  7.70 -99.0
@  SLB  SLPX  SLPT  SLPO CACO3  SLAL  SLFE  SLMN  SLBS  SLPA  SLPB  SLKE  SLMG  SLNA  SLSU  SLEC  SLCA
    20 -99.0 -99.0 -99.0 -99.0   1.8 -99.0 -99.0   4.0 -99.0 -99.0   0.1   0.1 -99.0 -99.0 -99.0   0.1

*BRWACBR020  WISE        SICL    150 WISE DATABASE, SOIL BR020
@SITE        COUNTRY          LAT     LONG SCS Family
 -99         Brazil        -8.367  -66.133 Plinthic Acrisol (ACp)
@ SCOM  SALB  SLU1  SLDR  SLRO  SLNF  SLPF  SMHB  SMPX  SMKE
    BN  0.13 10.24  0.40 73.00  1.00  1.00 SA001 SA001 SA001
@  SLB  SLMH  SLLL  SDUL  SSAT  SRGF  SSKS  SBDM  SLOC  SLCL  SLSI  SLCF  SLNI  SLHW  SLHB  SCEC  SADC
    10    A1 0.145 0.299 0.526  1.00  2.07  1.19  1.00 28.00 54.00  2.00  0.10  3.70  3.50  8.70 -99.0
    25    B1 0.235 0.352 0.496  0.70  0.64  1.28  0.52 38.00 44.00  2.00  0.07  3.70  3.50  6.80 -99.0
    90    B2 0.196 0.326 0.488  0.32  0.92  1.31  0.44 42.00 43.00  5.00  0.05  4.10  3.60  6.20 -99.0
   150  B3pl 0.224 0.358 0.476  0.09  0.43  1.34  0.23 56.00 30.00  8.00  0.04  4.60  3.60  7.40 -99.0
@  SLB  SLPX  SLPT  SLPO CACO3  SLAL  SLFE  SLMN  SLBS  SLPA  SLPB  SLKE  SLMG  SLNA  SLSU  SLEC  SLCA
    10 -99.0   1.8 -99.0 -99.0   4.4 -99.0 -99.0   3.0 -99.0 -99.0   0.1   0.1 -99.0 -99.0 -99.0   0.1
    25 -99.0   0.8 -99.0 -99.0   4.2 -99.0 -99.0   3.0 -99.0 -99.0   0.1 -99.0 -99.0 -99.0 -99.0   0.1
    90 -99.0   0.5 -99.0 -99.0   4.2 -99.0 -99.0   2.0 -99.0 -99.0 -99.0 -99.0 -99.0 -99.0 -99.0 -99.0
   150 -99.0 -99.0 -99.0 -99.0   5.8 -99.0 -99.0   2.0 -99.0 -99.0 -99.0 -99.0 -99.0 -99.0 -99.0 -99.0

*BRWACBR021  WISE        SIL     170 WISE DATABASE, SOIL BR021
@SITE        COUNTRY          LAT     LONG SCS Family
 -99         Brazil        -9.800  -68.000 Ferric Acrisol (ACf)
@ SCOM  SALB  SLU1  SLDR  SLRO  SLNF  SLPF  SMHB  SMPX  SMKE
    BN  0.13 10.08  0.40 73.00  1.00  1.00 SA001 SA001 SA001
@  SLB  SLMH  SLLL  SDUL  SSAT  SRGF  SSKS  SBDM  SLOC  SLCL  SLSI  SLCF  SLNI  SLHW  SLHB  SCEC  SADC
     5    A1 0.148 0.337 0.513  1.00  1.13  1.18  2.42 26.00 67.00 -99.0  0.31  5.00  4.80 18.70 -99.0
    15    A3 0.124 0.271 0.491  1.00  2.38  1.29  0.78 29.00 60.00 -99.0  0.15  5.00  4.00 11.00 -99.0
    40    B1 0.223 0.348 0.470  0.58  0.49  1.36  0.40 38.00 53.00 -99.0  0.10  4.70  3.50 12.20 -99.0
   110    B2 0.259 0.362 0.460  0.22  0.30  1.39  0.28 46.00 47.00  3.00  0.08  4.60  3.70 14.20 -99.0
   140    B3 0.211 0.353 0.462  0.08  0.38  1.38  0.32 59.00 36.00  4.00  0.09  4.80  4.00 17.40 -99.0
   170     C 0.225 0.359 0.455  0.05  0.29  1.40  0.19 56.00 39.00  4.00  0.07  4.80  4.50 21.60 -99.0
@  SLB  SLPX  SLPT  SLPO CACO3  SLAL  SLFE  SLMN  SLBS  SLPA  SLPB  SLKE  SLMG  SLNA  SLSU  SLEC  SLCA
     5 -99.0   7.7 -99.0 -99.0 -99.0 -99.0 -99.0  83.0 -99.0 -99.0   0.3   5.1   0.1 -99.0 -99.0  10.0
    15 -99.0   3.4 -99.0 -99.0   1.2 -99.0 -99.0  60.0 -99.0 -99.0   0.1   3.4   0.1 -99.0 -99.0   3.0
    40 -99.0   2.4 -99.0 -99.0   5.6 -99.0 -99.0  30.0 -99.0 -99.0   0.1   2.3   0.1 -99.0 -99.0   1.2
   110 -99.0   2.4 -99.0 -99.0   6.4 -99.0 -99.0  25.0 -99.0 -99.0   0.1   2.3 -99.0 -99.0 -99.0   1.1
   140 -99.0   4.1 -99.0 -99.0  12.0 -99.0 -99.0  17.0 -99.0 -99.0   0.1   2.2 -99.0 -99.0 -99.0   0.7
   170 -99.0   5.5 -99.0 -99.0  17.2 -99.0 -99.0  14.0 -99.0 -99.0   0.1   2.4 -99.0 -99.0 -99.0   0.5

*BRWACBR022  WISE        SICL    150 WISE DATABASE, SOIL BR022
@SITE        COUNTRY          LAT     LONG SCS Family
 -99         Brazil        -8.950  -67.217 Plinthic Acrisol (ACp)
@ SCOM  SALB  SLU1  SLDR  SLRO  SLNF  SLPF  SMHB  SMPX  SMKE
    BN  0.13 10.56  0.40 76.00  1.00  1.00 SA001 SA001 SA001
@  SLB  SLMH  SLLL  SDUL  SSAT  SRGF  SSKS  SBDM  SLOC  SLCL  SLSI  SLCF  SLNI  SLHW  SLHB  SCEC  SADC
     4    A1 0.155 0.337 0.547  1.00  1.42  1.09  3.64 32.00 64.00 -99.0  0.43  3.70  3.40 21.50 -99.0
    15    A3 0.178 0.350 0.501  1.00  0.70  1.25  1.91 33.00 63.00  1.00  0.23  3.50  3.10 13.80 -99.0
    45    B1 0.290 0.421 0.480  0.55  0.10  1.32  0.86 41.00 52.00  2.00  0.09  3.90  3.40 10.60 -99.0
    80    B2 0.198 0.325 0.465  0.29  0.71  1.37  0.64 49.00 47.00  2.00  0.08  4.00  3.50 11.10 -99.0
   120    B3 0.213 0.350 0.467  0.14  0.44  1.36  0.53 58.00 38.00 -99.0  0.07  4.20  3.80 10.90 -99.0
   150     C 0.226 0.358 0.478  0.07  0.45  1.34  0.35 49.00 39.00  2.00  0.04  4.50  3.40 11.80 -99.0
@  SLB  SLPX  SLPT  SLPO CACO3  SLAL  SLFE  SLMN  SLBS  SLPA  SLPB  SLKE  SLMG  SLNA  SLSU  SLEC  SLCA
     4 -99.0  21.0 -99.0 -99.0   5.2 -99.0 -99.0  15.0 -99.0 -99.0   0.3   1.1 -99.0 -99.0 -99.0   1.8
    15 -99.0   6.6 -99.0 -99.0   6.6 -99.0 -99.0   5.0 -99.0 -99.0   0.2   0.4 -99.0 -99.0 -99.0   0.2
    45 -99.0   1.2 -99.0 -99.0   6.8 -99.0 -99.0   2.0 -99.0 -99.0   0.1   0.1 -99.0 -99.0 -99.0 -99.0
    80 -99.0 -99.0 -99.0 -99.0   8.2 -99.0 -99.0   2.0 -99.0 -99.0   0.1   0.1 -99.0 -99.0 -99.0 -99.0
   120 -99.0 -99.0 -99.0 -99.0   8.4 -99.0 -99.0   1.0 -99.0 -99.0   0.1 -99.0 -99.0 -99.0 -99.0 -99.0
   150 -99.0 -99.0 -99.0 -99.0  10.2 -99.0 -99.0   2.0 -99.0 -99.0   0.1   0.1 -99.0 -99.0 -99.0 -99.0

*BRWCMBR023  WISE        SL      170 WISE DATABASE, SOIL BR023
@SITE        COUNTRY          LAT     LONG SCS Family
 -99         Brazil        -9.650  -68.200 Dystric Cambisol (CMd)
@ SCOM  SALB  SLU1  SLDR  SLRO  SLNF  SLPF  SMHB  SMPX  SMKE
    BN  0.13  9.52  0.60 73.00  1.00  1.00 SA001 SA001 SA001
@  SLB  SLMH  SLLL  SDUL  SSAT  SRGF  SSKS  SBDM  SLOC  SLCL  SLSI  SLCF  SLNI  SLHW  SLHB  SCEC  SADC
    20    A1 0.040 0.177 0.418  0.82  7.40  1.43  1.37 19.00 10.00 -99.0  0.14  3.50  3.00 11.00 -99.0
    50    A3 0.192 0.289 0.396  0.50  0.61  1.54  0.33 23.00 19.00 -99.0  0.04  4.00  3.30  5.40 -99.0
    70    B1 0.215 0.299 0.390  0.30  0.44  1.55  0.29 26.00 16.00 -99.0  0.04  4.00  3.60  5.60 -99.0
   100   B21 0.215 0.299 0.399  0.18  0.52  1.53  0.28 26.00 21.00 -99.0  0.03  4.00  3.50  5.90 -99.0
   140   B22 0.225 0.299 0.402  0.09  0.53  1.52  0.24 27.00 23.00 -99.0  0.03  4.20  3.50  5.40 -99.0
   170    B3 0.240 0.309 0.386  0.05  0.31  1.57  0.23 34.00 13.00 -99.0  0.04  4.30  4.00  5.10 -99.0
@  SLB  SLPX  SLPT  SLPO CACO3  SLAL  SLFE  SLMN  SLBS  SLPA  SLPB  SLKE  SLMG  SLNA  SLSU  SLEC  SLCA
    20 -99.0   9.4 -99.0 -99.0   2.4 -99.0 -99.0   7.0 -99.0 -99.0   0.1   0.3 -99.0 -99.0 -99.0   0.4
    50 -99.0   0.6 -99.0 -99.0   2.8 -99.0 -99.0   2.0 -99.0 -99.0 -99.0 -99.0 -99.0 -99.0 -99.0 -99.0
    70 -99.0 -99.0 -99.0 -99.0   3.4 -99.0 -99.0   2.0 -99.0 -99.0 -99.0 -99.0 -99.0 -99.0 -99.0 -99.0
   100 -99.0 -99.0 -99.0 -99.0   3.8 -99.0 -99.0   2.0 -99.0 -99.0 -99.0 -99.0 -99.0 -99.0 -99.0 -99.0
   140 -99.0 -99.0 -99.0 -99.0   3.8 -99.0 -99.0   2.0 -99.0 -99.0 -99.0 -99.0 -99.0 -99.0 -99.0 -99.0
   170 -99.0 -99.0 -99.0 -99.0   3.8 -99.0 -99.0   2.0 -99.0 -99.0 -99.0 -99.0 -99.0 -99.0 -99.0 -99.0

*BRWFRBR024  WISE        SCL     170 WISE DATABASE, SOIL BR024
@SITE        COUNTRY          LAT     LONG SCS Family
 -99         Brazil        -8.333  -68.167 Xanthic Ferralsol (FRx)
@ SCOM  SALB  SLU1  SLDR  SLRO  SLNF  SLPF  SMHB  SMPX  SMKE
    BN  0.13 10.40  0.40 73.00  1.00  1.00 SA001 SA001 SA001
@  SLB  SLMH  SLLL  SDUL  SSAT  SRGF  SSKS  SBDM  SLOC  SLCL  SLSI  SLCF  SLNI  SLHW  SLHB  SCEC  SADC
     5    A1 0.180 0.357 0.467  1.00  0.44  1.31  1.88 30.00 22.00 -99.0  0.15  3.50  3.00 12.90 -99.0
    30    A3 0.137 0.308 0.453  0.70  0.83  1.39  1.16 38.00 19.00 -99.0  0.09  3.50  3.20  8.20 -99.0
    50    B1 0.214 0.339 0.445  0.45  0.39  1.42  0.59 43.00 20.00 -99.0  0.06  3.80  3.50  6.10 -99.0
    90   B21 0.204 0.312 0.446  0.25  0.71  1.42  0.29 47.00 20.00 -99.0  0.05  4.10  3.50  5.10 -99.0
   140   B22 0.237 0.343 0.454  0.10  0.42  1.41  0.20 51.00 20.00 -99.0  0.03  4.30  3.60  4.80 -99.0
   170    B3 0.231 0.351 0.452  0.05  0.34  1.41  0.15 58.00 11.00 -99.0  0.03  4.50  3.60  4.40 -99.0
@  SLB  SLPX  SLPT  SLPO CACO3  SLAL  SLFE  SLMN  SLBS  SLPA  SLPB  SLKE  SLMG  SLNA  SLSU  SLEC  SLCA
     5 -99.0   5.6 -99.0 -99.0   4.0 -99.0 -99.0   9.0 -99.0 -99.0   0.2   0.5 -99.0 -99.0 -99.0   0.4
    30 -99.0   2.7 -99.0 -99.0   3.4 -99.0 -99.0   4.0 -99.0 -99.0   0.1   0.1 -99.0 -99.0 -99.0   0.1
    50 -99.0   0.7 -99.0 -99.0   3.2 -99.0 -99.0   2.0 -99.0 -99.0 -99.0 -99.0 -99.0 -99.0 -99.0 -99.0
    90 -99.0 -99.0 -99.0 -99.0   2.8 -99.0 -99.0   3.0 -99.0 -99.0 -99.0   0.1 -99.0 -99.0 -99.0 -99.0
   140 -99.0 -99.0 -99.0 -99.0   3.0 -99.0 -99.0   3.0 -99.0 -99.0 -99.0 -99.0 -99.0 -99.0 -99.0 -99.0
   170 -99.0 -99.0 -99.0 -99.0   3.0 -99.0 -99.0   3.0 -99.0 -99.0 -99.0 -99.0 -99.0 -99.0 -99.0 -99.0

*BRWLVBR026  WISE        L       140 WISE DATABASE, SOIL BR026
@SITE        COUNTRY          LAT     LONG SCS Family
 -99         Brazil        -9.167  -71.167 Ferric Luvisol (LVf)
@ SCOM  SALB  SLU1  SLDR  SLRO  SLNF  SLPF  SMHB  SMPX  SMKE
    BN  0.13  9.84  0.40 76.00  1.00  1.00 SA001 SA001 SA001
@  SLB  SLMH  SLLL  SDUL  SSAT  SRGF  SSKS  SBDM  SLOC  SLCL  SLSI  SLCF  SLNI  SLHW  SLHB  SCEC  SADC
    10    A1 0.176 0.353 0.508  1.00  0.82  1.20  1.72 23.00 46.00 -99.0  0.17  5.90  5.00 21.80 -99.0
    20    A3 0.151 0.293 0.494  0.74  1.70  1.29  0.67 28.00 45.00 -99.0  0.08  6.20  4.90 19.00 -99.0
    30    B1 0.233 0.355 0.491  0.61  0.56  1.30  0.43 39.00 45.00 -99.0  0.05  6.10  4.90 29.60 -99.0
    40    B2 0.215 0.345 0.476  0.50  0.56  1.34  0.37 45.00 44.00 -99.0  0.04  6.30  5.00 33.90 -99.0
    70    B3 0.228 0.343 0.478  0.33  0.59  1.34  0.31 39.00 49.00 -99.0  0.02  6.40  5.00 31.20 -99.0
   140    C1 0.217 0.340 0.469  0.12  0.55  1.36  0.28 36.00 54.00 -99.0  0.02  6.40  5.70 34.50 -99.0
@  SLB  SLPX  SLPT  SLPO CACO3  SLAL  SLFE  SLMN  SLBS  SLPA  SLPB  SLKE  SLMG  SLNA  SLSU  SLEC  SLCA
    10 -99.0   6.1 -99.0 -99.0 -99.0 -99.0 -99.0  87.0 -99.0 -99.0   0.1   1.8   0.1 -99.0 -99.0  17.0
    20 -99.0   2.6 -99.0 -99.0 -99.0 -99.0 -99.0  90.0 -99.0 -99.0   0.1   2.0   0.1 -99.0 -99.0  15.0
    30 -99.0   1.3 -99.0 -99.0 -99.0 -99.0 -99.0  96.0 -99.0 -99.0   0.1   3.0   0.2 -99.0 -99.0  25.0
    40 -99.0   0.8 -99.0 -99.0 -99.0 -99.0 -99.0  95.0 -99.0 -99.0   0.1   3.9   0.2 -99.0 -99.0  28.0
    70 -99.0   0.8 -99.0 -99.0 -99.0 -99.0 -99.0  97.0 -99.0 -99.0   0.1   3.9   0.2 -99.0 -99.0  26.0
   140 -99.0   1.4 -99.0 -99.0 -99.0 -99.0 -99.0  99.0 -99.0 -99.0   0.1   3.8   0.2 -99.0 -99.0  30.0

*BRWCMBR027  WISE        SL      100 WISE DATABASE, SOIL BR027
@SITE        COUNTRY          LAT     LONG SCS Family
 -99         Brazil        -9.633  -71.133 Eutric Cambisol (CMe)
@ SCOM  SALB  SLU1  SLDR  SLRO  SLNF  SLPF  SMHB  SMPX  SMKE
    BN  0.13  9.04  0.60 83.00  1.00  1.00 SA001 SA001 SA001
@  SLB  SLMH  SLLL  SDUL  SSAT  SRGF  SSKS  SBDM  SLOC  SLCL  SLSI  SLCF  SLNI  SLHW  SLHB  SCEC  SADC
    10    A1 0.047 0.182 0.448  1.00  8.44  1.35  1.21 13.00 30.00 -99.0  0.13  5.20  4.70 12.60 -99.0
    25    A3 0.059 0.178 0.426  0.70  7.70  1.42  0.69 13.00 29.00 -99.0  0.07  5.90  5.10  9.00 -99.0
    35    B1 0.124 0.234 0.408  0.55  2.38  1.48  0.52 17.00 25.00 -99.0  0.06  5.60  4.50 11.60 -99.0
    50    B2 0.138 0.256 0.406  0.43  1.39  1.51  0.37 22.00 23.00 -99.0  0.04  5.20  4.00 15.00 -99.0
    70    B3 0.206 0.294 0.388  0.30  0.55  1.54  0.25 20.00 22.00 -99.0  0.02  5.00  4.50 14.90 -99.0
   100     C 0.197 0.290 0.391  0.18  0.63  1.53  0.27 20.00 23.00 -99.0  0.02  5.20  4.30 16.50 -99.0
@  SLB  SLPX  SLPT  SLPO CACO3  SLAL  SLFE  SLMN  SLBS  SLPA  SLPB  SLKE  SLMG  SLNA  SLSU  SLEC  SLCA
    10 -99.0   6.4 -99.0 -99.0 -99.0 -99.0 -99.0  95.0 -99.0 -99.0   0.2   1.7 -99.0 -99.0 -99.0  10.0
    25 -99.0   2.6 -99.0 -99.0 -99.0 -99.0 -99.0  98.0 -99.0 -99.0   0.1   1.5   0.1 -99.0 -99.0   7.2
    35 -99.0   2.8 -99.0 -99.0 -99.0 -99.0 -99.0  91.0 -99.0 -99.0   0.1   1.5   0.1 -99.0 -99.0   9.0
    50 -99.0  13.1 -99.0 -99.0   1.0 -99.0 -99.0  86.0 -99.0 -99.0   0.1   1.7   0.1 -99.0 -99.0  11.0
    70 -99.0  41.5 -99.0 -99.0   1.4 -99.0 -99.0  83.0 -99.0 -99.0   0.1   1.2   0.1 -99.0 -99.0  11.0
   100 -99.0  95.2 -99.0 -99.0   1.2 -99.0 -99.0  87.0 -99.0 -99.0   0.1   1.2   0.1 -99.0 -99.0  13.0

*BRWACBR028  WISE        L       120 WISE DATABASE, SOIL BR028
@SITE        COUNTRY          LAT     LONG SCS Family
 -99         Brazil        -8.617  -71.200 Ferric Acrisol (ACf)
@ SCOM  SALB  SLU1  SLDR  SLRO  SLNF  SLPF  SMHB  SMPX  SMKE
    BN  0.13  9.44  0.40 75.00  1.00  1.00 SA001 SA001 SA001
@  SLB  SLMH  SLLL  SDUL  SSAT  SRGF  SSKS  SBDM  SLOC  SLCL  SLSI  SLCF  SLNI  SLHW  SLHB  SCEC  SADC
    20    A1 0.130 0.255 0.447  0.82  2.21  1.39  0.56 18.00 38.00 -99.0  0.08  4.40  4.10  4.90 -99.0
    40    A3 0.093 0.205 0.438  0.55  4.83  1.42  0.28 13.00 37.00 -99.0  0.03  5.00  4.00  3.10 -99.0
    55    B1 0.119 0.244 0.423  0.39  2.13  1.46  0.33 18.00 33.00 -99.0  0.04  5.00  4.10  3.10 -99.0
    65    B2 0.212 0.310 0.441  0.30  0.68  1.44  0.39 30.00 31.00 -99.0  0.05  4.80  4.00  5.70 -99.0
    80    B3 0.212 0.320 0.446  0.23  0.60  1.42  0.41 39.00 26.00 -99.0  0.06  4.50  3.80  9.00 -99.0
   120     C 0.207 0.313 0.446  0.14  0.69  1.42  0.34 39.00 27.00 -99.0  0.04  4.70  4.00 10.00 -99.0
@  SLB  SLPX  SLPT  SLPO CACO3  SLAL  SLFE  SLMN  SLBS  SLPA  SLPB  SLKE  SLMG  SLNA  SLSU  SLEC  SLCA
    20 -99.0   5.0 -99.0 -99.0   0.8 -99.0 -99.0  36.0 -99.0 -99.0   0.1   0.5 -99.0 -99.0 -99.0   1.1
    40 -99.0   1.0 -99.0 -99.0   0.8 -99.0 -99.0  32.0 -99.0 -99.0   0.1   0.4 -99.0 -99.0 -99.0   0.5
    55 -99.0 -99.0 -99.0 -99.0   1.6 -99.0 -99.0  63.0 -99.0 -99.0   0.1   0.5 -99.0 -99.0 -99.0   0.4
    65 -99.0 -99.0 -99.0 -99.0   3.6 -99.0 -99.0  36.0 -99.0 -99.0   0.1   0.7 -99.0 -99.0 -99.0   0.4
    80 -99.0 -99.0 -99.0 -99.0   5.6 -99.0 -99.0  19.0 -99.0 -99.0   0.1   1.0 -99.0 -99.0 -99.0   0.6
   120 -99.0 -99.0 -99.0 -99.0   7.0 -99.0 -99.0  19.0 -99.0 -99.0   0.1   1.1 -99.0 -99.0 -99.0   0.7

*BRWGLBR030  WISE        SIC     160 WISE DATABASE, SOIL BR030
@SITE        COUNTRY          LAT     LONG SCS Family
 -99         Brazil        -3.433  -60.467 Eutric Gleysol (GLe)
@ SCOM  SALB  SLU1  SLDR  SLRO  SLNF  SLPF  SMHB  SMPX  SMKE
    BN  0.13 11.68  0.05 73.00  1.00  1.00 SA001 SA001 SA001
@  SLB  SLMH  SLLL  SDUL  SSAT  SRGF  SSKS  SBDM  SLOC  SLCL  SLSI  SLCF  SLNI  SLHW  SLHB  SCEC  SADC
    10    A1 0.194 0.359 0.516  1.00  0.73  1.20  2.30 46.00 51.00 -99.0  0.23  4.10  3.30 28.10 -99.0
    20   C1g 0.289 0.425 0.468  0.74  0.06  1.35  0.80 51.00 47.00 -99.0  0.08  4.00  3.20 33.70 -99.0
   100   C2g 0.251 0.357 0.444  0.30  0.25  1.43  0.30 44.00 54.00 -99.0  0.03  4.50  3.20 23.80 -99.0
   160   C3g 0.231 0.352 0.476  0.07  0.48  1.35  0.20 55.00 28.00 -99.0  0.02  4.70  3.40 28.70 -99.0
@  SLB  SLPX  SLPT  SLPO CACO3  SLAL  SLFE  SLMN  SLBS  SLPA  SLPB  SLKE  SLMG  SLNA  SLSU  SLEC  SLCA
    10 -99.0 -99.0 -99.0 -99.0   3.1 -99.0 -99.0  68.0 -99.0 -99.0   0.3   6.4   0.3 -99.0 -99.0  14.4
    20 -99.0 -99.0 -99.0 -99.0   5.6 -99.0 -99.0  69.0 -99.0 -99.0   0.2   7.2   0.3 -99.0 -99.0  13.8
   100 -99.0 -99.0 -99.0 -99.0   4.6 -99.0 -99.0  64.0 -99.0 -99.0   0.2  10.1   0.6 -99.0 -99.0   3.1
   160 -99.0 -99.0 -99.0 -99.0   0.9 -99.0 -99.0  86.0 -99.0 -99.0   0.2  11.6   0.7 -99.0 -99.0  13.8

*BRWFRBR037  WISE        SC      155 WISE DATABASE, SOIL BR037
@SITE        COUNTRY          LAT     LONG SCS Family
 -99         Brazil         1.050  -55.867 Haplic Ferralsol (FRh)
@ SCOM  SALB  SLU1  SLDR  SLRO  SLNF  SLPF  SMHB  SMPX  SMKE
    BN  0.13 10.80  0.60 80.00  1.00  1.00 SA001 SA001 SA001
@  SLB  SLMH  SLLL  SDUL  SSAT  SRGF  SSKS  SBDM  SLOC  SLCL  SLSI  SLCF  SLNI  SLHW  SLHB  SCEC  SADC
     5    A1 0.177 0.351 0.459  1.00  0.44  1.34  1.67 35.00 19.00 23.00  0.12  5.40  4.20  5.50 -99.0
    20    A3 0.183 0.312 0.463  0.78  0.87  1.37  0.94 44.00 20.00 15.00  0.08  5.30  4.30  3.50 -99.0
    45    B1 0.226 0.348 0.465  0.52  0.44  1.37  0.52 52.00 18.00 25.00  0.05  5.50  4.50  2.50 -99.0
    80   B21 0.236 0.342 0.455  0.29  0.43  1.40  0.28 51.00 19.00 10.00  0.04  5.70  4.50  2.00 -99.0
   130   B22 0.235 0.348 0.458  0.12  0.39  1.39  0.28 53.00 18.00 29.00  0.03  5.70  4.80  1.80 -99.0
   155    B3 0.121 0.257 0.440  0.06  1.99  1.42  0.13 23.00 42.00 14.00  0.02  5.70  4.50  2.00 -99.0
@  SLB  SLPX  SLPT  SLPO CACO3  SLAL  SLFE  SLMN  SLBS  SLPA  SLPB  SLKE  SLMG  SLNA  SLSU  SLEC  SLCA
     5 -99.0 -99.0 -99.0 -99.0   1.6 -99.0 -99.0   4.0 -99.0 -99.0   0.1   0.1   0.1 -99.0 -99.0   0.1
    20 -99.0 -99.0 -99.0 -99.0   0.8 -99.0 -99.0   5.0 -99.0 -99.0 -99.0 -99.0   0.1 -99.0 -99.0 -99.0
    45 -99.0 -99.0 -99.0 -99.0   0.4 -99.0 -99.0   6.0 -99.0 -99.0 -99.0 -99.0   0.1 -99.0 -99.0 -99.0
    80 -99.0 -99.0 -99.0 -99.0 -99.0 -99.0 -99.0   9.0 -99.0 -99.0 -99.0 -99.0   0.1 -99.0 -99.0 -99.0
   130 -99.0 -99.0 -99.0 -99.0 -99.0 -99.0 -99.0   8.0 -99.0 -99.0 -99.0 -99.0   0.1 -99.0 -99.0 -99.0
   155 -99.0 -99.0 -99.0 -99.0 -99.0 -99.0 -99.0   8.0 -99.0 -99.0 -99.0 -99.0   0.1 -99.0 -99.0 -99.0

*BRWFRBR038  WISE        C       180 WISE DATABASE, SOIL BR038
@SITE        COUNTRY          LAT     LONG SCS Family
 -99         Brazil         1.350  -54.283 Haplic Ferralsol (FRh)
@ SCOM  SALB  SLU1  SLDR  SLRO  SLNF  SLPF  SMHB  SMPX  SMKE
   RED  0.14  7.82  0.60 76.00  1.00  1.00 SA001 SA001 SA001
@  SLB  SLMH  SLLL  SDUL  SSAT  SRGF  SSKS  SBDM  SLOC  SLCL  SLSI  SLCF  SLNI  SLHW  SLHB  SCEC  SADC
    30    A1 0.207 0.372 0.519  0.74  0.60  1.20  1.95 53.00 22.00 31.00  0.18  5.00  4.10  7.90 -99.0
    60    A3 0.231 0.382 0.493  0.41  0.34  1.29  0.71 61.00 18.00 44.00  0.10  5.20  4.10  4.30 -99.0
    95    B1 0.211 0.353 0.481  0.21  0.52  1.33  0.41 62.00 15.00 33.00  0.05  5.40  4.40  2.80 -99.0
   125   B21 0.202 0.344 0.476  0.11  0.57  1.34  0.31 61.00 16.00 25.00  0.05  5.30  4.50  2.50 -99.0
   150   B22 0.215 0.352 0.470  0.06  0.44  1.36  0.23 58.00 19.00 30.00  0.03  5.40  4.50  2.50 -99.0
   180   B23 0.237 0.352 0.459  0.04  0.37  1.39  0.21 54.00 19.00 43.00  0.03  5.40  4.40  2.70 -99.0
@  SLB  SLPX  SLPT  SLPO CACO3  SLAL  SLFE  SLMN  SLBS  SLPA  SLPB  SLKE  SLMG  SLNA  SLSU  SLEC  SLCA
    30 -99.0   0.5 -99.0 -99.0   1.6 -99.0 -99.0   7.0 -99.0 -99.0   0.1   0.2   0.1 -99.0 -99.0   0.1
    60 -99.0 -99.0 -99.0 -99.0   1.2 -99.0 -99.0   5.0 -99.0 -99.0   0.1   0.1   0.1 -99.0 -99.0 -99.0
    95 -99.0 -99.0 -99.0 -99.0   0.4 -99.0 -99.0   6.0 -99.0 -99.0 -99.0 -99.0   0.1 -99.0 -99.0 -99.0
   125 -99.0 -99.0 -99.0 -99.0   0.4 -99.0 -99.0   7.0 -99.0 -99.0 -99.0 -99.0   0.1 -99.0 -99.0 -99.0
   150 -99.0 -99.0 -99.0 -99.0   0.6 -99.0 -99.0   6.0 -99.0 -99.0 -99.0 -99.0   0.1 -99.0 -99.0 -99.0
   180 -99.0 -99.0 -99.0 -99.0   0.8 -99.0 -99.0   9.0 -99.0 -99.0   0.1 -99.0   0.1 -99.0 -99.0 -99.0

*BRWFRBR039  WISE        C       105 WISE DATABASE, SOIL BR039
@SITE        COUNTRY          LAT     LONG SCS Family
 -99         Brazil        -0.050  -57.500 Xanthic Ferralsol (FRx)
@ SCOM  SALB  SLU1  SLDR  SLRO  SLNF  SLPF  SMHB  SMPX  SMKE
    BN  0.13  7.88  0.60 83.00  1.00  1.00 SA001 SA001 SA001
@  SLB  SLMH  SLLL  SDUL  SSAT  SRGF  SSKS  SBDM  SLOC  SLCL  SLSI  SLCF  SLNI  SLHW  SLHB  SCEC  SADC
    20     A 0.235 0.392 0.520  0.82  0.42  1.20  1.71 52.00 38.00  1.00  0.17  4.30  4.00  5.00 -99.0
    40    B1 0.221 0.366 0.491  0.55  0.46  1.29  0.97 65.00 29.00  2.00  0.10  4.70  4.30  3.20 -99.0
    65   B21 0.236 0.388 0.477  0.35  0.22  1.34  0.48 70.00 24.00  3.00  0.07  5.70  4.90  1.80 -99.0
   105   B22 0.213 0.351 0.475  0.18  0.48  1.35  0.29 67.00 24.00 12.00  0.03  5.50  5.10  1.50 -99.0
@  SLB  SLPX  SLPT  SLPO CACO3  SLAL  SLFE  SLMN  SLBS  SLPA  SLPB  SLKE  SLMG  SLNA  SLSU  SLEC  SLCA
    20 -99.0   0.5 -99.0 -99.0   0.4 -99.0 -99.0  12.0 -99.0 -99.0   0.1   0.3 -99.0 -99.0 -99.0   0.2
    40 -99.0   0.5 -99.0 -99.0 -99.0 -99.0 -99.0   7.0 -99.0 -99.0   0.1   0.1 -99.0 -99.0 -99.0   0.1
    65 -99.0   0.5 -99.0 -99.0 -99.0 -99.0 -99.0   8.0 -99.0 -99.0 -99.0 -99.0 -99.0 -99.0 -99.0   0.1
   105 -99.0   0.5 -99.0 -99.0 -99.0 -99.0 -99.0  10.0 -99.0 -99.0 -99.0 -99.0 -99.0 -99.0 -99.0 -99.0

*BRWNTBR040  WISE        SL      110 WISE DATABASE, SOIL BR040
@SITE        COUNTRY          LAT     LONG SCS Family
 -99         Brazil         0.833  -56.583 Haplic Nitisol (NTh)
@ SCOM  SALB  SLU1  SLDR  SLRO  SLNF  SLPF  SMHB  SMPX  SMKE
    BN  0.13  9.28  0.60 80.00  1.00  1.00 SA001 SA001 SA001
@  SLB  SLMH  SLLL  SDUL  SSAT  SRGF  SSKS  SBDM  SLOC  SLCL  SLSI  SLCF  SLNI  SLHW  SLHB  SCEC  SADC
    10    A1 0.082 0.234 0.452  1.00  3.60  1.33  1.69 16.00 24.00 19.00  0.13  4.60  4.00  5.90 -99.0
    20    A3 0.129 0.241 0.429  0.74  2.39  1.43  0.85 23.00 24.00 22.00  0.08  4.60  4.00  3.60 -99.0
    40    B1 0.204 0.324 0.432  0.55  0.44  1.46  0.52 36.00 22.00 29.00  0.04  5.10  4.20  2.80 -99.0
    75   B21 0.213 0.336 0.434  0.32  0.34  1.45  0.52 45.00 16.00 33.00  0.04  5.40  4.20  2.60 -99.0
   110   B22 0.224 0.343 0.460  0.16  0.46  1.39  0.37 53.00 17.00 22.00  0.03  6.10  5.30  2.40 -99.0
@  SLB  SLPX  SLPT  SLPO CACO3  SLAL  SLFE  SLMN  SLBS  SLPA  SLPB  SLKE  SLMG  SLNA  SLSU  SLEC  SLCA
    10 -99.0   1.0 -99.0 -99.0   1.2 -99.0 -99.0   8.0 -99.0 -99.0   0.2   0.2 -99.0 -99.0 -99.0   0.2
    20 -99.0 -99.0 -99.0 -99.0   1.0 -99.0 -99.0   4.0 -99.0 -99.0   0.1   0.1 -99.0 -99.0 -99.0 -99.0